powerfulcases/cases/matpower/case3120sp/case3120sp.raw
0, 100, 33, 0, 0, 60  / 28-Jan-2026 21:52:06 - MATPOWER 8.1


     1, 'BUS 1       ',       220, 1,    1,    1, 1,           1,           0, 1.11, 0.95, 1.11, 0.95
     2, 'BUS 2       ',       220, 1,    1,    1, 1,           1,           0, 1.11, 0.95, 1.11, 0.95
     3, 'BUS 3       ',       220, 1,    1,    1, 1,           1,           0, 1.11, 0.95, 1.11, 0.95
     4, 'BUS 4       ',       220, 1,    1,    1, 1,           1,           0, 1.11, 0.95, 1.11, 0.95
     5, 'BUS 5       ',       220, 1,    1,    1, 1,           1,           0, 1.11, 0.95, 1.11, 0.95
     6, 'BUS 6       ',       220, 1,    1,    1, 1,           1,           0, 1.11, 0.95, 1.11, 0.95
     7, 'BUS 7       ',       220, 1,    1,    1, 1,           1,           0, 1.11, 0.95, 1.11, 0.95
     8, 'BUS 8       ',       220, 1,    1,    1, 1,           1,           0, 1.11, 0.95, 1.11, 0.95
     9, 'BUS 9       ',       220, 1,    1,    1, 1,           1,           0, 1.11, 0.95, 1.11, 0.95
    10, 'BUS 10      ',       220, 1,    1,    1, 1,           1,           0, 1.11, 0.95, 1.11, 0.95
    11, 'BUS 11      ',       400, 1,    1,    1, 1,           1,           0, 1.05, 0.95, 1.05, 0.95
    12, 'BUS 12      ',       400, 1,    1,    1, 1,           1,           0, 1.05, 0.95, 1.05, 0.95
    13, 'BUS 13      ',       400, 1,    1,    1, 1,           1,           0, 1.05, 0.95, 1.05, 0.95
    14, 'BUS 14      ',       220, 1,    1,    1, 1,           1,           0, 1.11, 0.95, 1.11, 0.95
    15, 'BUS 15      ',       220, 1,    1,    1, 1,           1,           0, 1.11, 0.95, 1.11, 0.95
    16, 'BUS 16      ',       220, 1,    1,    1, 1,           1,           0, 1.11, 0.95, 1.11, 0.95
    17, 'BUS 17      ',       220, 1,    1,    1, 1,           1,           0, 1.11, 0.95, 1.11, 0.95
    18, 'BUS 18      ',       400, 1,    1,    1, 1,           1,           0, 1.05, 0.95, 1.05, 0.95
    19, 'BUS 19      ',       400, 1,    1,    1, 1,           1,           0, 1.05, 0.95, 1.05, 0.95
    20, 'BUS 20      ',       400, 1,    1,    1, 1,           1,           0, 1.05, 0.95, 1.05, 0.95
    21, 'BUS 21      ',       400, 1,    1,    1, 1,           1,           0, 1.05, 0.95, 1.05, 0.95
    22, 'BUS 22      ',       220, 2,    1,    1, 1,           1,           0, 1.11, 0.95, 1.11, 0.95
    23, 'BUS 23      ',       220, 2,    1,    1, 1,           1,           0, 1.11, 0.95, 1.11, 0.95
    24, 'BUS 24      ',       220, 1,    1,    1, 1,           1,           0, 1.11, 0.95, 1.11, 0.95
    25, 'BUS 25      ',       220, 1,    1,    1, 1,           1,           0, 1.11, 0.95, 1.11, 0.95
    26, 'BUS 26      ',       220, 1,    1,    1, 1,           1,           0, 1.11, 0.95, 1.11, 0.95
    27, 'BUS 27      ',       220, 1,    1,    1, 1,           1,           0, 1.11, 0.95, 1.11, 0.95
    28, 'BUS 28      ',       220, 1,    1,    1, 1,           1,           0, 1.11, 0.95, 1.11, 0.95
    29, 'BUS 29      ',       220, 1,    1,    1, 1,           1,           0, 1.11, 0.95, 1.11, 0.95
    30, 'BUS 30      ',       220, 1,    1,    1, 1,           1,           0, 1.11, 0.95, 1.11, 0.95
    31, 'BUS 31      ',       220, 1,    1,    1, 1,           1,           0, 1.11, 0.95, 1.11, 0.95
    32, 'BUS 32      ',       400, 1,    1,    1, 1,           1,           0, 1.05, 0.95, 1.05, 0.95
    33, 'BUS 33      ',       400, 1,    1,    1, 1,           1,           0, 1.05, 0.95, 1.05, 0.95
    34, 'BUS 34      ',       400, 1,    1,    1, 1,           1,           0, 1.05, 0.95, 1.05, 0.95
    35, 'BUS 35      ',       220, 2,    1,    1, 1,           1,           0, 1.11, 0.95, 1.11, 0.95
    36, 'BUS 36      ',       220, 2,    1,    1, 1,           1,           0, 1.11, 0.95, 1.11, 0.95
    37, 'BUS 37      ',       400, 3,    1,    1, 1,           1,           0, 1.05, 0.95, 1.05, 0.95
    38, 'BUS 38      ',       400, 2,    1,    1, 1,           1,           0, 1.05, 0.95, 1.05, 0.95
    39, 'BUS 39      ',       220, 1,    1,    1, 1,           1,           0, 1.11, 0.95, 1.11, 0.95
    40, 'BUS 40      ',       220, 1,    1,    1, 1,           1,           0, 1.11, 0.95, 1.11, 0.95
    41, 'BUS 41      ',       400, 1,    1,    1, 1,           1,           0, 1.05, 0.95, 1.05, 0.95
    42, 'BUS 42      ',       400, 1,    1,    1, 1,           1,           0, 1.05, 0.95, 1.05, 0.95
    43, 'BUS 43      ',       220, 1,    1,    1, 1,           1,           0, 1.11, 0.95, 1.11, 0.95
    44, 'BUS 44      ',       400, 1,    1,    1, 1,           1,           0, 1.05, 0.95, 1.05, 0.95
    45, 'BUS 45      ',       220, 1,    1,    1, 1,           1,           0, 1.11, 0.95, 1.11, 0.95
    46, 'BUS 46      ',       220, 1,    1,    1, 1,           1,           0, 1.11, 0.95, 1.11, 0.95
    47, 'BUS 47      ',       220, 1,    1,    2, 1,           1,           0, 1.11, 0.95, 1.11, 0.95
    48, 'BUS 48      ',       220, 1,    1,    2, 1,           1,           0, 1.11, 0.95, 1.11, 0.95
    49, 'BUS 49      ',       220, 1,    1,    2, 1,           1,           0, 1.11, 0.95, 1.11, 0.95
    50, 'BUS 50      ',       220, 1,    1,    2, 1,           1,           0, 1.11, 0.95, 1.11, 0.95
    51, 'BUS 51      ',       220, 1,    1,    2, 1,           1,           0, 1.11, 0.95, 1.11, 0.95
    52, 'BUS 52      ',       220, 1,    1,    2, 1,           1,           0, 1.11, 0.95, 1.11, 0.95
    53, 'BUS 53      ',       220, 1,    1,    2, 1,           1,           0, 1.11, 0.95, 1.11, 0.95
    54, 'BUS 54      ',       400, 1,    1,    2, 1,           1,           0, 1.05, 0.95, 1.05, 0.95
    55, 'BUS 55      ',       220, 2,    1,    2, 1,           1,           0, 1.11, 0.95, 1.11, 0.95
    56, 'BUS 56      ',       220, 2,    1,    2, 1,           1,           0, 1.11, 0.95, 1.11, 0.95
    57, 'BUS 57      ',       220, 2,    1,    2, 1,           1,           0, 1.11, 0.95, 1.11, 0.95
    58, 'BUS 58      ',       400, 2,    1,    2, 1,           1,           0, 1.05, 0.95, 1.05, 0.95
    59, 'BUS 59      ',       400, 2,    1,    2, 1,           1,           0, 1.05, 0.95, 1.05, 0.95
    60, 'BUS 60      ',       220, 1,    1,    2, 1,           1,           0, 1.11, 0.95, 1.11, 0.95
    61, 'BUS 61      ',       400, 1,    1,    2, 1,           1,           0, 1.05, 0.95, 1.05, 0.95
    62, 'BUS 62      ',       400, 1,    1,    2, 1,           1,           0, 1.05, 0.95, 1.05, 0.95
    63, 'BUS 63      ',       400, 1,    1,    2, 1,           1,           0, 1.05, 0.95, 1.05, 0.95
    64, 'BUS 64      ',       220, 1,    1,    2, 1,           1,           0, 1.11, 0.95, 1.11, 0.95
    65, 'BUS 65      ',       220, 1,    1,    2, 1,           1,           0, 1.11, 0.95, 1.11, 0.95
    66, 'BUS 66      ',       400, 1,    1,    2, 1,           1,           0, 1.05, 0.95, 1.05, 0.95
    67, 'BUS 67      ',       400, 1,    1,    2, 1,           1,           0, 1.05, 0.95, 1.05, 0.95
    68, 'BUS 68      ',       220, 2,    1,    2, 1,           1,           0, 1.11, 0.95, 1.11, 0.95
    69, 'BUS 69      ',       220, 2,    1,    2, 1,           1,           0, 1.11, 0.95, 1.11, 0.95
    70, 'BUS 70      ',       400, 2,    1,    2, 1,           1,           0, 1.05, 0.95, 1.05, 0.95
    71, 'BUS 71      ',       400, 2,    1,    2, 1,           1,           0, 1.05, 0.95, 1.05, 0.95
    72, 'BUS 72      ',       220, 1,    1,    2, 1,           1,           0, 1.11, 0.95, 1.11, 0.95
    73, 'BUS 73      ',       220, 1,    1,    2, 1,           1,           0, 1.11, 0.95, 1.11, 0.95
    74, 'BUS 74      ',       220, 1,    1,    2, 1,           1,           0, 1.11, 0.95, 1.11, 0.95
    75, 'BUS 75      ',       220, 1,    1,    2, 1,           1,           0, 1.11, 0.95, 1.11, 0.95
    76, 'BUS 76      ',       220, 1,    1,    2, 1,           1,           0, 1.11, 0.95, 1.11, 0.95
    77, 'BUS 77      ',       220, 1,    1,    2, 1,           1,           0, 1.11, 0.95, 1.11, 0.95
    78, 'BUS 78      ',       400, 1,    1,    2, 1,           1,           0, 1.05, 0.95, 1.05, 0.95
    79, 'BUS 79      ',       400, 1,    1,    2, 1,           1,           0, 1.05, 0.95, 1.05, 0.95
    80, 'BUS 80      ',       220, 1,    1,    2, 1,           1,           0, 1.11, 0.95, 1.11, 0.95
    81, 'BUS 81      ',       220, 1,    1,    2, 1,           1,           0, 1.11, 0.95, 1.11, 0.95
    82, 'BUS 82      ',       220, 1,    1,    2, 1,           1,           0, 1.11, 0.95, 1.11, 0.95
    83, 'BUS 83      ',       220, 1,    1,    3, 1,           1,           0, 1.11, 0.95, 1.11, 0.95
    84, 'BUS 84      ',       220, 1,    1,    3, 1,           1,           0, 1.11, 0.95, 1.11, 0.95
    85, 'BUS 85      ',       220, 1,    1,    3, 1,           1,           0, 1.11, 0.95, 1.11, 0.95
    86, 'BUS 86      ',       220, 1,    1,    3, 1,           1,           0, 1.11, 0.95, 1.11, 0.95
    87, 'BUS 87      ',       220, 1,    1,    3, 1,           1,           0, 1.11, 0.95, 1.11, 0.95
    88, 'BUS 88      ',       220, 1,    1,    3, 1,           1,           0, 1.11, 0.95, 1.11, 0.95
    89, 'BUS 89      ',       220, 1,    1,    3, 1,           1,           0, 1.11, 0.95, 1.11, 0.95
    90, 'BUS 90      ',       220, 1,    1,    3, 1,           1,           0, 1.11, 0.95, 1.11, 0.95
    91, 'BUS 91      ',       220, 1,    1,    3, 1,           1,           0, 1.11, 0.95, 1.11, 0.95
    92, 'BUS 92      ',       220, 2,    1,    3, 1,           1,           0, 1.11, 0.95, 1.11, 0.95
    93, 'BUS 93      ',       220, 2,    1,    3, 1,           1,           0, 1.11, 0.95, 1.11, 0.95
    94, 'BUS 94      ',       220, 1,    1,    3, 1,           1,           0, 1.11, 0.95, 1.11, 0.95
    95, 'BUS 95      ',       220, 1,    1,    3, 1,           1,           0, 1.11, 0.95, 1.11, 0.95
    96, 'BUS 96      ',       400, 2,    1,    3, 1,           1,           0, 1.05, 0.95, 1.05, 0.95
    97, 'BUS 97      ',       400, 1,    1,    3, 1,           1,           0, 1.05, 0.95, 1.05, 0.95
    98, 'BUS 98      ',       220, 1,    1,    3, 1,           1,           0, 1.11, 0.95, 1.11, 0.95
    99, 'BUS 99      ',       220, 1,    1,    3, 1,           1,           0, 1.11, 0.95, 1.11, 0.95
   100, 'BUS 100     ',       220, 1,    1,    3, 1,           1,           0, 1.11, 0.95, 1.11, 0.95
   101, 'BUS 101     ',       220, 1,    1,    3, 1,           1,           0, 1.11, 0.95, 1.11, 0.95
   102, 'BUS 102     ',       220, 1,    1,    3, 1,           1,           0, 1.11, 0.95, 1.11, 0.95
   103, 'BUS 103     ',       220, 1,    1,    3, 1,           1,           0, 1.11, 0.95, 1.11, 0.95
   104, 'BUS 104     ',       220, 1,    1,    3, 1,           1,           0, 1.11, 0.95, 1.11, 0.95
   105, 'BUS 105     ',       220, 1,    1,    3, 1,           1,           0, 1.11, 0.95, 1.11, 0.95
   106, 'BUS 106     ',       220, 1,    1,    3, 1,           1,           0, 1.11, 0.95, 1.11, 0.95
   107, 'BUS 107     ',       400, 1,    1,    3, 1,           1,           0, 1.05, 0.95, 1.05, 0.95
   108, 'BUS 108     ',       400, 1,    1,    3, 1,           1,           0, 1.05, 0.95, 1.05, 0.95
   109, 'BUS 109     ',       220, 1,    1,    3, 1,           1,           0, 1.11, 0.95, 1.11, 0.95
   110, 'BUS 110     ',       220, 1,    1,    3, 1,           1,           0, 1.11, 0.95, 1.11, 0.95
   111, 'BUS 111     ',       220, 1,    1,    3, 1,           1,           0, 1.11, 0.95, 1.11, 0.95
   112, 'BUS 112     ',       220, 1,    1,    3, 1,           1,           0, 1.11, 0.95, 1.11, 0.95
   113, 'BUS 113     ',       220, 2,    1,    3, 1,           1,           0, 1.11, 0.95, 1.11, 0.95
   114, 'BUS 114     ',       220, 1,    1,    3, 1,           1,           0, 1.11, 0.95, 1.11, 0.95
   115, 'BUS 115     ',       220, 1,    1,    3, 1,           1,           0, 1.11, 0.95, 1.11, 0.95
   116, 'BUS 116     ',       220, 1,    1,    3, 1,           1,           0, 1.11, 0.95, 1.11, 0.95
   117, 'BUS 117     ',       220, 1,    1,    3, 1,           1,           0, 1.11, 0.95, 1.11, 0.95
   118, 'BUS 118     ',       220, 1,    1,    3, 1,           1,           0, 1.11, 0.95, 1.11, 0.95
   119, 'BUS 119     ',       220, 2,    1,    3, 1,           1,           0, 1.11, 0.95, 1.11, 0.95
   120, 'BUS 120     ',       220, 2,    1,    3, 1,           1,           0, 1.11, 0.95, 1.11, 0.95
   121, 'BUS 121     ',       220, 2,    1,    3, 1,           1,           0, 1.11, 0.95, 1.11, 0.95
   122, 'BUS 122     ',       220, 2,    1,    3, 1,           1,           0, 1.11, 0.95, 1.11, 0.95
   123, 'BUS 123     ',       220, 1,    1,    3, 1,           1,           0, 1.11, 0.95, 1.11, 0.95
   124, 'BUS 124     ',       220, 1,    1,    3, 1,           1,           0, 1.11, 0.95, 1.11, 0.95
   125, 'BUS 125     ',       220, 1,    1,    3, 1,           1,           0, 1.11, 0.95, 1.11, 0.95
   126, 'BUS 126     ',       220, 1,    1,    3, 1,           1,           0, 1.11, 0.95, 1.11, 0.95
   127, 'BUS 127     ',       220, 1,    1,    3, 1,           1,           0, 1.11, 0.95, 1.11, 0.95
   128, 'BUS 128     ',       220, 1,    1,    3, 1,           1,           0, 1.11, 0.95, 1.11, 0.95
   129, 'BUS 129     ',       220, 1,    1,    3, 1,           1,           0, 1.11, 0.95, 1.11, 0.95
   130, 'BUS 130     ',       400, 1,    1,    3, 1,           1,           0, 1.05, 0.95, 1.05, 0.95
   131, 'BUS 131     ',       400, 1,    1,    3, 1,           1,           0, 1.05, 0.95, 1.05, 0.95
   132, 'BUS 132     ',       220, 2,    1,    3, 1,           1,           0, 1.11, 0.95, 1.11, 0.95
   133, 'BUS 133     ',       220, 2,    1,    3, 1,           1,           0, 1.11, 0.95, 1.11, 0.95
   134, 'BUS 134     ',       220, 2,    1,    3, 1,           1,           0, 1.11, 0.95, 1.11, 0.95
   135, 'BUS 135     ',       220, 1,    1,    3, 1,           1,           0, 1.11, 0.95, 1.11, 0.95
   136, 'BUS 136     ',       400, 1,    1,    3, 1,           1,           0, 1.05, 0.95, 1.05, 0.95
   137, 'BUS 137     ',       400, 1,    1,    3, 1,           1,           0, 1.05, 0.95, 1.05, 0.95
   138, 'BUS 138     ',       400, 1,    1,    3, 1,           1,           0, 1.05, 0.95, 1.05, 0.95
   139, 'BUS 139     ',       400, 1,    1,    3, 1,           1,           0, 1.05, 0.95, 1.05, 0.95
   140, 'BUS 140     ',       220, 1,    1,    3, 1,           1,           0, 1.11, 0.95, 1.11, 0.95
   141, 'BUS 141     ',       220, 1,    1,    3, 1,           1,           0, 1.11, 0.95, 1.11, 0.95
   142, 'BUS 142     ',       220, 2,    1,    3, 1,           1,           0, 1.11, 0.95, 1.11, 0.95
   143, 'BUS 143     ',       220, 2,    1,    3, 1,           1,           0, 1.11, 0.95, 1.11, 0.95
   144, 'BUS 144     ',       400, 2,    1,    3, 1,           1,           0, 1.05, 0.95, 1.05, 0.95
   145, 'BUS 145     ',       400, 1,    1,    3, 1,           1,           0, 1.05, 0.95, 1.05, 0.95
   146, 'BUS 146     ',       220, 1,    1,    3, 1,           1,           0, 1.11, 0.95, 1.11, 0.95
   147, 'BUS 147     ',       220, 1,    1,    3, 1,           1,           0, 1.11, 0.95, 1.11, 0.95
   148, 'BUS 148     ',       220, 1,    1,    3, 1,           1,           0, 1.11, 0.95, 1.11, 0.95
   149, 'BUS 149     ',       220, 1,    1,    3, 1,           1,           0, 1.11, 0.95, 1.11, 0.95
   150, 'BUS 150     ',       220, 2,    1,    3, 1,           1,           0, 1.11, 0.95, 1.11, 0.95
   151, 'BUS 151     ',       220, 2,    1,    3, 1,           1,           0, 1.11, 0.95, 1.11, 0.95
   152, 'BUS 152     ',       220, 2,    1,    4, 1,           1,           0, 1.11, 0.95, 1.11, 0.95
   153, 'BUS 153     ',       220, 2,    1,    4, 1,           1,           0, 1.11, 0.95, 1.11, 0.95
   154, 'BUS 154     ',       220, 1,    1,    4, 1,           1,           0, 1.11, 0.95, 1.11, 0.95
   155, 'BUS 155     ',       220, 1,    1,    4, 1,           1,           0, 1.11, 0.95, 1.11, 0.95
   156, 'BUS 156     ',       220, 1,    1,    4, 1,           1,           0, 1.11, 0.95, 1.11, 0.95
   157, 'BUS 157     ',       220, 1,    1,    4, 1,           1,           0, 1.11, 0.95, 1.11, 0.95
   158, 'BUS 158     ',       220, 1,    1,    4, 1,           1,           0, 1.11, 0.95, 1.11, 0.95
   159, 'BUS 159     ',       400, 1,    1,    4, 1,           1,           0, 1.05, 0.95, 1.05, 0.95
   160, 'BUS 160     ',       400, 1,    1,    4, 1,           1,           0, 1.05, 0.95, 1.05, 0.95
   161, 'BUS 161     ',       220, 1,    1,    4, 1,           1,           0, 1.11, 0.95, 1.11, 0.95
   162, 'BUS 162     ',       220, 1,    1,    4, 1,           1,           0, 1.11, 0.95, 1.11, 0.95
   163, 'BUS 163     ',       220, 1,    1,    4, 1,           1,           0, 1.11, 0.95, 1.11, 0.95
   164, 'BUS 164     ',       220, 1,    1,    4, 1,           1,           0, 1.11, 0.95, 1.11, 0.95
   165, 'BUS 165     ',       220, 1,    1,    4, 1,           1,           0, 1.11, 0.95, 1.11, 0.95
   166, 'BUS 166     ',       220, 1,    1,    4, 1,           1,           0, 1.11, 0.95, 1.11, 0.95
   167, 'BUS 167     ',       220, 2,    1,    4, 1,           1,           0, 1.11, 0.95, 1.11, 0.95
   168, 'BUS 168     ',       220, 1,    1,    4, 1,           1,           0, 1.11, 0.95, 1.11, 0.95
   169, 'BUS 169     ',       220, 2,    1,    4, 1,           1,           0, 1.11, 0.95, 1.11, 0.95
   170, 'BUS 170     ',       220, 2,    1,    4, 1,           1,           0, 1.11, 0.95, 1.11, 0.95
   171, 'BUS 171     ',       400, 2,    1,    4, 1,           1,           0, 1.05, 0.95, 1.05, 0.95
   172, 'BUS 172     ',       400, 2,    1,    4, 1,           1,           0, 1.05, 0.95, 1.05, 0.95
   173, 'BUS 173     ',       220, 1,    1,    4, 1,           1,           0, 1.11, 0.95, 1.11, 0.95
   174, 'BUS 174     ',       220, 1,    1,    4, 1,           1,           0, 1.11, 0.95, 1.11, 0.95
   175, 'BUS 175     ',       220, 1,    1,    4, 1,           1,           0, 1.11, 0.95, 1.11, 0.95
   176, 'BUS 176     ',       220, 1,    1,    4, 1,           1,           0, 1.11, 0.95, 1.11, 0.95
   177, 'BUS 177     ',       220, 2,    1,    4, 1,           1,           0, 1.11, 0.95, 1.11, 0.95
   178, 'BUS 178     ',       220, 2,    1,    4, 1,           1,           0, 1.11, 0.95, 1.11, 0.95
   179, 'BUS 179     ',       220, 1,    1,    4, 1,           1,           0, 1.11, 0.95, 1.11, 0.95
   180, 'BUS 180     ',       400, 2,    1,    4, 1,           1,           0, 1.05, 0.95, 1.05, 0.95
   181, 'BUS 181     ',       400, 1,    1,    4, 1,           1,           0, 1.05, 0.95, 1.05, 0.95
   182, 'BUS 182     ',       220, 1,    1,    4, 1,           1,           0, 1.11, 0.95, 1.11, 0.95
   183, 'BUS 183     ',       220, 1,    1,    4, 1,           1,           0, 1.11, 0.95, 1.11, 0.95
   184, 'BUS 184     ',       400, 1,    1,    4, 1,           1,           0, 1.05, 0.95, 1.05, 0.95
   185, 'BUS 185     ',       400, 1,    1,    4, 1,           1,           0, 1.05, 0.95, 1.05, 0.95
   186, 'BUS 186     ',       400, 1,    1,    4, 1,           1,           0, 1.05, 0.95, 1.05, 0.95
   187, 'BUS 187     ',       400, 1,    1,    4, 1,           1,           0, 1.05, 0.95, 1.05, 0.95
   188, 'BUS 188     ',       220, 2,    1,    4, 1,           1,           0, 1.11, 0.95, 1.11, 0.95
   189, 'BUS 189     ',       220, 2,    1,    4, 1,           1,           0, 1.11, 0.95, 1.11, 0.95
   190, 'BUS 190     ',       400, 2,    1,    4, 1,           1,           0, 1.05, 0.95, 1.05, 0.95
   191, 'BUS 191     ',       220, 1,    1,    4, 1,           1,           0, 1.11, 0.95, 1.11, 0.95
   192, 'BUS 192     ',       220, 1,    1,    4, 1,           1,           0, 1.11, 0.95, 1.11, 0.95
   193, 'BUS 193     ',       220, 1,    1,    4, 1,           1,           0, 1.11, 0.95, 1.11, 0.95
   194, 'BUS 194     ',       220, 1,    1,    4, 1,           1,           0, 1.11, 0.95, 1.11, 0.95
   195, 'BUS 195     ',       220, 1,    1,    4, 1,           1,           0, 1.11, 0.95, 1.11, 0.95
   196, 'BUS 196     ',       220, 1,    1,    4, 1,           1,           0, 1.11, 0.95, 1.11, 0.95
   197, 'BUS 197     ',       400, 1,    1,    4, 1,           1,           0, 1.05, 0.95, 1.05, 0.95
   198, 'BUS 198     ',       220, 1,    1,    4, 1,           1,           0, 1.11, 0.95, 1.11, 0.95
   199, 'BUS 199     ',       220, 1,    1,    4, 1,           1,           0, 1.11, 0.95, 1.11, 0.95
   200, 'BUS 200     ',       220, 1,    1,    4, 1,           1,           0, 1.11, 0.95, 1.11, 0.95
...
0 / END OF BUS DATA, BEGIN LOAD DATA
    22,  1, 1,    1,    1,        10,        20, 0, 0, 0, 0, 1, 1, 0
    23,  1, 1,    1,    1,        10,        20, 0, 0, 0, 0, 1, 1, 0
    35,  1, 1,    1,    1,     32.16,     52.07, 0, 0, 0, 0, 1, 1, 0
    36,  1, 1,    1,    1,     46.36,     92.07, 0, 0, 0, 0, 1, 1, 0
    37,  1, 1,    1,    1,        60,       120, 0, 0, 0, 0, 1, 1, 0
    38,  1, 1,    1,    1,        60,       120, 0, 0, 0, 0, 1, 1, 0
    52,  1, 1,    1,    2,      3.97,         1, 0, 0, 0, 0, 1, 1, 0
    55,  1, 1,    1,    2,        13,        30, 0, 0, 0, 0, 1, 1, 0
    56,  1, 1,    1,    2,     39.35,     90.07, 0, 0, 0, 0, 1, 1, 0
    57,  1, 1,    1,    2,        26,        60, 0, 0, 0, 0, 1, 1, 0
    58,  1, 1,    1,    2,        26,        50, 0, 0, 0, 0, 1, 1, 0
    59,  1, 1,    1,    2,        26,        50, 0, 0, 0, 0, 1, 1, 0
    68,  1, 1,    1,    2,        13,        30, 0, 0, 0, 0, 1, 1, 0
    69,  1, 1,    1,    2,        26,        60, 0, 0, 0, 0, 1, 1, 0
    71,  1, 1,    1,    2,        26,        60, 0, 0, 0, 0, 1, 1, 0
    84,  1, 1,    1,    3,      6.41,      2.01, 0, 0, 0, 0, 1, 1, 0
    85,  1, 1,    1,    3,     13.89,      5.02, 0, 0, 0, 0, 1, 1, 0
    92,  1, 1,    1,    3,        28,        70, 0, 0, 0, 0, 1, 1, 0
    93,  1, 1,    1,    3,        28,        68, 0, 0, 0, 0, 1, 1, 0
    94,  1, 1,    1,    3,      2.78,      1.91, 0, 0, 0, 0, 1, 1, 0
    96,  1, 1,    1,    3,        32,       142, 0, 0, 0, 0, 1, 1, 0
   101,  1, 1,    1,    3,      38.8,      -2.7, 0, 0, 0, 0, 1, 1, 0
   113,  1, 1,    1,    3,     38.41,     12.71, 0, 0, 0, 0, 1, 1, 0
   119,  1, 1,    1,    3,        10,        44, 0, 0, 0, 0, 1, 1, 0
   120,  1, 1,    1,    3,        10,        44, 0, 0, 0, 0, 1, 1, 0
   121,  1, 1,    1,    3,         7,        18, 0, 0, 0, 0, 1, 1, 0
   122,  1, 1,    1,    3,         8,        21, 0, 0, 0, 0, 1, 1, 0
   124,  1, 1,    1,    3,      59.4,     11.61, 0, 0, 0, 0, 1, 1, 0
   133,  1, 1,    1,    3,         9,        20, 0, 0, 0, 0, 1, 1, 0
   134,  1, 1,    1,    3,         6,        15, 0, 0, 0, 0, 1, 1, 0
   142,  1, 1,    1,    3,      18.2,     37.21, 0, 0, 0, 0, 1, 1, 0
   143,  1, 1,    1,    3,     41.52,     73.01, 0, 0, 0, 0, 1, 1, 0
   144,  1, 1,    1,    3,        28,        66, 0, 0, 0, 0, 1, 1, 0
   152,  1, 1,    1,    4,       7.7,        20, 0, 0, 0, 0, 1, 1, 0
   153,  1, 1,    1,    4,       7.8,        20, 0, 0, 0, 0, 1, 1, 0
   169,  1, 1,    1,    4,        12,        30, 0, 0, 0, 0, 1, 1, 0
   170,  1, 1,    1,    4,     19.91,     36.57, 0, 0, 0, 0, 1, 1, 0
   171,  1, 1,    1,    4,        12,        30, 0, 0, 0, 0, 1, 1, 0
   172,  1, 1,    1,    4,        12,        30, 0, 0, 0, 0, 1, 1, 0
   177,  1, 1,    1,    4,      30.5,      64.2, 0, 0, 0, 0, 1, 1, 0
   178,  1, 1,    1,    4,      58.9,        96, 0, 0, 0, 0, 1, 1, 0
   180,  1, 1,    1,    4,      26.5,      64.2, 0, 0, 0, 0, 1, 1, 0
   188,  1, 1,    1,    4,        12,        30, 0, 0, 0, 0, 1, 1, 0
   189,  1, 1,    1,    4,      23.8,        60, 0, 0, 0, 0, 1, 1, 0
   190,  1, 1,    1,    4,        38,        64, 0, 0, 0, 0, 1, 1, 0
   236,  1, 1,    1,    5,        11,        40, 0, 0, 0, 0, 1, 1, 0
   237,  1, 1,    1,    5,         5,        10, 0, 0, 0, 0, 1, 1, 0
   240,  1, 1,    0,    0,         8,        20, 0, 0, 0, 0, 1, 1, 0
   241,  1, 1,    1,    1,      9.86,         2, 0, 0, 0, 0, 1, 1, 0
   242,  1, 1,    1,    1,      6.41,         0, 0, 0, 0, 0, 1, 1, 0
   243,  1, 1,    1,    1,      9.37,       0.6, 0, 0, 0, 0, 1, 1, 0
   244,  1, 1,    1,    1,      7.25,         4, 0, 0, 0, 0, 1, 1, 0
   246,  1, 1,    1,    1,      2.18,       2.4, 0, 0, 0, 0, 1, 1, 0
   247,  1, 1,    1,    1,      5.12,      4.91, 0, 0, 0, 0, 1, 1, 0
   248,  1, 1,    1,    1,      3.65,       0.9, 0, 0, 0, 0, 1, 1, 0
   249,  1, 1,    1,    1,      3.85,         1, 0, 0, 0, 0, 1, 1, 0
   250,  1, 1,    1,    1,      4.44,     -1.76, 0, 0, 0, 0, 1, 1, 0
   251,  1, 1,    1,    1,       2.5,         0, 0, 0, 0, 0, 1, 1, 0
   252,  1, 1,    1,    1,     17.76,       1.2, 0, 0, 0, 0, 1, 1, 0
   253,  1, 1,    1,    1,     12.33,       2.1, 0, 0, 0, 0, 1, 1, 0
   254,  1, 1,    1,    1,      7.41,      0.99, 0, 0, 0, 0, 1, 1, 0
   255,  1, 1,    1,    1,      4.93,         0, 0, 0, 0, 0, 1, 1, 0
   256,  1, 1,    1,    1,      4.93,         0, 0, 0, 0, 0, 1, 1, 0
   257,  1, 1,    1,    1,      14.8,       2.5, 0, 0, 0, 0, 1, 1, 0
   258,  1, 1,    1,    1,      5.42,       1.1, 0, 0, 0, 0, 1, 1, 0
   259,  1, 1,    1,    1,      4.44,         1, 0, 0, 0, 0, 1, 1, 0
   260,  1, 1,    1,    1,      2.96,       0.5, 0, 0, 0, 0, 1, 1, 0
   261,  1, 1,    1,    1,      5.42,       0.6, 0, 0, 0, 0, 1, 1, 0
   263,  1, 1,    1,    1,      2.96,       0.9, 0, 0, 0, 0, 1, 1, 0
   264,  1, 1,    1,    1,      5.33,       1.5, 0, 0, 0, 0, 1, 1, 0
   265,  1, 1,    1,    1,      3.45,       0.7, 0, 0, 0, 0, 1, 1, 0
   266,  1, 1,    1,    1,      3.45,       0.7, 0, 0, 0, 0, 1, 1, 0
   267,  1, 1,    1,    1,      4.34,       1.8, 0, 0, 0, 0, 1, 1, 0
   268,  1, 1,    1,    1,      4.34,       1.8, 0, 0, 0, 0, 1, 1, 0
   269,  1, 1,    1,    1,      6.25,         2, 0, 0, 0, 0, 1, 1, 0
   270,  1, 1,    1,    1,      6.69,         3, 0, 0, 0, 0, 1, 1, 0
   271,  1, 1,    1,    1,      0.49,       0.2, 0, 0, 0, 0, 1, 1, 0
   272,  1, 1,    1,    1,      0.79,       0.2, 0, 0, 0, 0, 1, 1, 0
   273,  1, 1,    1,    1,      1.18,      -0.9, 0, 0, 0, 0, 1, 1, 0
   274,  1, 1,    1,    1,      4.74,       0.5, 0, 0, 0, 0, 1, 1, 0
   276,  1, 1,    1,    1,      3.16,       0.1, 0, 0, 0, 0, 1, 1, 0
   277,  1, 1,    1,    1,       7.4,       1.3, 0, 0, 0, 0, 1, 1, 0
   278,  1, 1,    1,    1,     10.36,       1.3, 0, 0, 0, 0, 1, 1, 0
   279,  1, 1,    1,    1,      2.27,      1.11, 0, 0, 0, 0, 1, 1, 0
   280,  1, 1,    1,    1,      5.33,       1.6, 0, 0, 0, 0, 1, 1, 0
   281,  1, 1,    1,    1,      2.07,       0.1, 0, 0, 0, 0, 1, 1, 0
   282,  1, 1,    1,    1,      1.87,      0.09, 0, 0, 0, 0, 1, 1, 0
   283,  1, 1,    1,    1,      1.87,      0.31, 0, 0, 0, 0, 1, 1, 0
   284,  1, 1,    1,    1,      8.58,         3, 0, 0, 0, 0, 1, 1, 0
   285,  1, 1,    1,    1,      1.58,       0.4, 0, 0, 0, 0, 1, 1, 0
   286,  1, 1,    1,    1,      4.44,       1.1, 0, 0, 0, 0, 1, 1, 0
   287,  1, 1,    1,    1,      5.33,       0.5, 0, 0, 0, 0, 1, 1, 0
   288,  1, 1,    1,    1,      4.64,       0.4, 0, 0, 0, 0, 1, 1, 0
   289,  1, 1,    1,    1,     13.89,      7.76, 0, 0, 0, 0, 1, 1, 0
   290,  1, 1,    1,    1,     19.52,     11.23, 0, 0, 0, 0, 1, 1, 0
   291,  1, 1,    1,    1,      6.81,       0.5, 0, 0, 0, 0, 1, 1, 0
   292,  1, 1,    1,    1,      9.57,      3.84, 0, 0, 0, 0, 1, 1, 0
   294,  1, 1,    1,    1,      8.38,       0.8, 0, 0, 0, 0, 1, 1, 0
   296,  1, 1,    1,    1,      3.95,       0.4, 0, 0, 0, 0, 1, 1, 0
   297,  1, 1,    1,    1,      5.42,       0.6, 0, 0, 0, 0, 1, 1, 0
   298,  1, 1,    1,    1,      2.47,       0.3, 0, 0, 0, 0, 1, 1, 0
   300,  1, 1,    1,    1,      0.49,       0.2, 0, 0, 0, 0, 1, 1, 0
   301,  1, 1,    1,    1,      0.17,       0.3, 0, 0, 0, 0, 1, 1, 0
   302,  1, 1,    1,    1,      0.06,       0.1, 0, 0, 0, 0, 1, 1, 0
   303,  1, 1,    1,    1,      5.92,       0.7, 0, 0, 0, 0, 1, 1, 0
   304,  1, 1,    1,    1,       0.3,       0.1, 0, 0, 0, 0, 1, 1, 0
   305,  1, 1,    1,    1,       0.4,       0.1, 0, 0, 0, 0, 1, 1, 0
   306,  1, 1,    1,    1,     10.06,      7.01, 0, 0, 0, 0, 1, 1, 0
   307,  1, 1,    1,    1,      0.49,       0.2, 0, 0, 0, 0, 1, 1, 0
   308,  1, 1,    1,    1,      8.09,       1.3, 0, 0, 0, 0, 1, 1, 0
   309,  1, 1,    1,    1,      4.74,       0.4, 0, 0, 0, 0, 1, 1, 0
   310,  1, 1,    1,    1,      4.74,      1.74, 0, 0, 0, 0, 1, 1, 0
   311,  1, 1,    1,    1,      2.86,      -1.4, 0, 0, 0, 0, 1, 1, 0
   312,  1, 1,    1,    1,      2.86,      -1.4, 0, 0, 0, 0, 1, 1, 0
   313,  1, 1,    1,    1,      3.08,         2, 0, 0, 0, 0, 1, 1, 0
   316,  1, 1,    1,    1,        20,        40, 0, 0, 0, 0, 1, 1, 0
   317,  1, 1,    1,    1,      4.93,         1, 0, 0, 0, 0, 1, 1, 0
   318,  1, 1,    1,    1,      2.96,       0.7, 0, 0, 0, 0, 1, 1, 0
   319,  1, 1,    1,    1,      3.95,         1, 0, 0, 0, 0, 1, 1, 0
   320,  1, 1,    1,    1,      1.48,       0.2, 0, 0, 0, 0, 1, 1, 0
   323,  1, 1,    1,    1,      5.42,         1, 0, 0, 0, 0, 1, 1, 0
   324,  1, 1,    1,    1,      6.41,         1, 0, 0, 0, 0, 1, 1, 0
   325,  1, 1,    1,    1,      1.97,         0, 0, 0, 0, 0, 1, 1, 0
   326,  1, 1,    1,    1,      4.74,       0.7, 0, 0, 0, 0, 1, 1, 0
   328,  1, 1,    1,    1,      9.99,      5.11, 0, 0, 0, 0, 1, 1, 0
   329,  1, 1,    1,    1,      7.68,       4.5, 0, 0, 0, 0, 1, 1, 0
   330,  1, 1,    1,    1,     18.57,         4, 0, 0, 0, 0, 1, 1, 0
   331,  1, 1,    1,    1,     17.67,      7.31, 0, 0, 0, 0, 1, 1, 0
   332,  1, 1,    1,    1,      5.92,         1, 0, 0, 0, 0, 1, 1, 0
   333,  1, 1,    1,    1,      6.91,         1, 0, 0, 0, 0, 1, 1, 0
   334,  1, 1,    1,    1,      36.5,         2, 0, 0, 0, 0, 1, 1, 0
   335,  1, 1,    1,    1,      3.95,       0.5, 0, 0, 0, 0, 1, 1, 0
   336,  1, 1,    1,    1,      3.75,       0.7, 0, 0, 0, 0, 1, 1, 0
   337,  1, 1,    1,    1,      2.07,       0.4, 0, 0, 0, 0, 1, 1, 0
   338,  1, 1,    1,    1,      9.67,      3.56, 0, 0, 0, 0, 1, 1, 0
   340,  1, 1,    1,    1,      6.41,       0.6, 0, 0, 0, 0, 1, 1, 0
   341,  1, 1,    1,    1,      4.99,       1.2, 0, 0, 0, 0, 1, 1, 0
   342,  1, 1,    1,    1,      6.79,       2.5, 0, 0, 0, 0, 1, 1, 0
   343,  1, 1,    1,    1,      1.97,       1.3, 0, 0, 0, 0, 1, 1, 0
   344,  1, 1,    1,    1,     27.67,     20.42, 0, 0, 0, 0, 1, 1, 0
   345,  1, 1,    1,    1,     20.43,     20.62, 0, 0, 0, 0, 1, 1, 0
   346,  1, 1,    1,    1,      36.5,     12.01, 0, 0, 0, 0, 1, 1, 0
   347,  1, 1,    1,    1,      4.56,         3, 0, 0, 0, 0, 1, 1, 0
   348,  1, 1,    1,    1,      9.96,       0.9, 0, 0, 0, 0, 1, 1, 0
   350,  1, 1,    1,    1,         7,         2, 0, 0, 0, 0, 1, 1, 0
   352,  1, 1,    1,    1,     13.32,       1.4, 0, 0, 0, 0, 1, 1, 0
   353,  1, 1,    1,    1,      2.47,         0, 0, 0, 0, 0, 1, 1, 0
   354,  1, 1,    1,    1,      1.97,         0, 0, 0, 0, 0, 1, 1, 0
   355,  1, 1,    1,    1,      5.92,      1.56, 0, 0, 0, 0, 1, 1, 0
   356,  1, 1,    1,    1,      5.92,      1.56, 0, 0, 0, 0, 1, 1, 0
   359,  1, 1,    1,    1,      0.18,      0.05, 0, 0, 0, 0, 1, 1, 0
   361,  1, 1,    1,    1,     15.19,      7.91, 0, 0, 0, 0, 1, 1, 0
   363,  1, 1,    1,    1,      3.65,       0.8, 0, 0, 0, 0, 1, 1, 0
   364,  1, 1,    1,    1,      3.65,       0.8, 0, 0, 0, 0, 1, 1, 0
   365,  1, 1,    1,    1,      1.97,       0.4, 0, 0, 0, 0, 1, 1, 0
   366,  1, 1,    1,    1,      6.41,         1, 0, 0, 0, 0, 1, 1, 0
   367,  1, 1,    1,    1,      6.69,       2.2, 0, 0, 0, 0, 1, 1, 0
   368,  1, 1,    1,    1,      5.53,       1.8, 0, 0, 0, 0, 1, 1, 0
   369,  1, 1,    1,    1,      0.15,      0.67, 0, 0, 0, 0, 1, 1, 0
   370,  1, 1,    1,    1,     18.52,     12.25, 0, 0, 0, 0, 1, 1, 0
   371,  1, 1,    1,    1,     14.09,      6.13, 0, 0, 0, 0, 1, 1, 0
   372,  1, 1,    1,    1,      1.97,       0.4, 0, 0, 0, 0, 1, 1, 0
   374,  1, 1,    1,    1,     12.04,      4.84, 0, 0, 0, 0, 1, 1, 0
   376,  1, 1,    1,    1,      2.47,       0.8, 0, 0, 0, 0, 1, 1, 0
   377,  1, 1,    1,    1,      5.13,       2.2, 0, 0, 0, 0, 1, 1, 0
   378,  1, 1,    1,    1,      5.62,       2.4, 0, 0, 0, 0, 1, 1, 0
   380,  1, 1,    1,    1,      7.89,       1.3, 0, 0, 0, 0, 1, 1, 0
   381,  1, 1,    1,    1,      2.96,         0, 0, 0, 0, 0, 1, 1, 0
   382,  1, 1,    1,    1,      3.28,         2, 0, 0, 0, 0, 1, 1, 0
   383,  1, 1,    1,    1,      3.13,         2, 0, 0, 0, 0, 1, 1, 0
   384,  1, 1,    1,    1,      2.86,       0.2, 0, 0, 0, 0, 1, 1, 0
   385,  1, 1,    1,    1,      8.53,       3.3, 0, 0, 0, 0, 1, 1, 0
   386,  1, 1,    1,    1,      9.79,      4.71, 0, 0, 0, 0, 1, 1, 0
   387,  1, 1,    1,    1,       8.2,       1.8, 0, 0, 0, 0, 1, 1, 0
   388,  1, 1,    1,    1,      5.62,      2.07, 0, 0, 0, 0, 1, 1, 0
   390,  1, 1,    1,    1,      3.74,      0.85, 0, 0, 0, 0, 1, 1, 0
   391,  1, 1,    1,    1,      5.33,       0.7, 0, 0, 0, 0, 1, 1, 0
   392,  1, 1,    1,    1,     11.44,       0.7, 0, 0, 0, 0, 1, 1, 0
   393,  1, 1,    1,    1,      2.07,       0.7, 0, 0, 0, 0, 1, 1, 0
   394,  1, 1,    1,    1,      2.07,       0.7, 0, 0, 0, 0, 1, 1, 0
   395,  1, 1,    1,    1,      9.67,      3.88, 0, 0, 0, 0, 1, 1, 0
   397,  1, 1,    1,    1,      9.57,      3.52, 0, 0, 0, 0, 1, 1, 0
   398,  1, 1,    1,    1,      4.93,     -0.66, 0, 0, 0, 0, 1, 1, 0
   399,  1, 1,    1,    1,      5.42,       0.5, 0, 0, 0, 0, 1, 1, 0
   401,  1, 1,    1,    1,      4.54,       1.9, 0, 0, 0, 0, 1, 1, 0
   402,  1, 1,    1,    1,     14.99,      6.03, 0, 0, 0, 0, 1, 1, 0
   404,  1, 1,    1,    1,     10.95,      4.03, 0, 0, 0, 0, 1, 1, 0
   406,  1, 1,    1,    1,     14.21,      5.24, 0, 0, 0, 0, 1, 1, 0
   407,  1, 1,    1,    1,     17.76,      6.54, 0, 0, 0, 0, 1, 1, 0
   408,  1, 1,    1,    1,      5.66,      1.52, 0, 0, 0, 0, 1, 1, 0
   409,  1, 1,    1,    1,      22.7,      9.13, 0, 0, 0, 0, 1, 1, 0
   411,  1, 1,    1,    1,     14.44,     10.73, 0, 0, 0, 0, 1, 1, 0
   412,  1, 1,    1,    1,      14.2,      0.68, 0, 0, 0, 0, 1, 1, 0
   414,  1, 1,    1,    1,       1.1,     -4.85, 0, 0, 0, 0, 1, 1, 0
   415,  1, 1,    1,    1,     12.46,      9.56, 0, 0, 0, 0, 1, 1, 0
   416,  1, 1,    1,    1,     11.34,       0.7, 0, 0, 0, 0, 1, 1, 0
   418,  1, 1,    1,    1,      1.97,       0.2, 0, 0, 0, 0, 1, 1, 0
   419,  1, 1,    1,    1,      2.82,         0, 0, 0, 0, 0, 1, 1, 0
   420,  1, 1,    1,    1,      4.03,         1, 0, 0, 0, 0, 1, 1, 0
   421,  1, 1,    1,    1,      2.28,       0.4, 0, 0, 0, 0, 1, 1, 0
...
0 / END OF LOAD DATA, BEGIN FIXED SHUNT DATA
   230, 1, 1,       0,      70
   321, 1, 1,       0,      45
   461, 1, 1,       0,      45
   477, 1, 1,       0,      15
   478, 1, 1,       0,      15
  2845, 1, 1,       0,    48.6
  2870, 1, 1,       0,      60
  2879, 1, 1,       0,      45
  2956, 1, 1,       0,      60
0 / END OF FIXED SHUNT DATA, BEGIN GENERATOR DATA
    22,  1,       180,     22.85,       162,       -61,  1.06818, 0,     235, 0, 1, 0, 0, 1, 1, 100,       221,       110, 1, 1, 0, 1, 0, 1, 0, 1, 0, 1
    23,  1,       180,     35.93,       140,       -25,  1.06818, 0,     235, 0, 1, 0, 0, 1, 1, 100,       200,       140, 1, 1, 0, 1, 0, 1, 0, 1, 0, 1
    35,  1,         0,         0,       190,       -19,  1.09545, 0,     426, 0, 1, 0, 0, 1, 0, 100,       370,       240, 1, 1, 0, 1, 0, 1, 0, 1, 0, 1
    35,  2,         0,         0,       190,       -19,  1.09545, 0,     426, 0, 1, 0, 0, 1, 0, 100,       370,       240, 1, 1, 0, 1, 0, 1, 0, 1, 0, 1
    35,  3,       345,    147.04,       190,       -19,  1.09545, 0,     426, 0, 1, 0, 0, 1, 1, 100,       370,       240, 1, 1, 0, 1, 0, 1, 0, 1, 0, 1
    36,  1,       370,      85.3,       190,       -19,  1.09545, 0,     426, 0, 1, 0, 0, 1, 1, 100,       370,       240, 1, 1, 0, 1, 0, 1, 0, 1, 0, 1
    36,  2,       320,      85.3,       190,       -19,  1.09545, 0,     426, 0, 1, 0, 0, 1, 1, 100,       370,       240, 1, 1, 0, 1, 0, 1, 0, 1, 0, 1
    37,  1,       370,     34.92,       190,       -19,     1.04, 0,     426, 0, 1, 0, 0, 1, 1, 100,       370,       240, 1, 1, 0, 1, 0, 1, 0, 1, 0, 1
    37,  2,       340,     34.92,       190,       -19,     1.04, 0,     426, 0, 1, 0, 0, 1, 1, 100,       370,       240, 1, 1, 0, 1, 0, 1, 0, 1, 0, 1
    37,  3,       340,     34.92,       190,       -19,     1.04, 0,     426, 0, 1, 0, 0, 1, 1, 100,       370,       240, 1, 1, 0, 1, 0, 1, 0, 1, 0, 1
    38,  1,       370,     29.84,       190,       -19,     1.04, 0,     426, 0, 1, 0, 0, 1, 1, 100,       370,       240, 1, 1, 0, 1, 0, 1, 0, 1, 0, 1
    38,  2,       340,     29.84,       190,       -19,     1.04, 0,     426, 0, 1, 0, 0, 1, 1, 100,       370,       240, 1, 1, 0, 1, 0, 1, 0, 1, 0, 1
    38,  3,       340,     29.84,       190,       -19,     1.04, 0,     426, 0, 1, 0, 0, 1, 1, 100,       370,       240, 1, 1, 0, 1, 0, 1, 0, 1, 0, 1
    55,  1,       205,     86.71,       152,       -33,  1.09091, 0,     235, 0, 1, 0, 0, 1, 1, 100,       215,       110, 1, 1, 0, 1, 0, 1, 0, 1, 0, 1
    55,  2,         0,         0,       152,       -33,  1.09091, 0,     235, 0, 1, 0, 0, 1, 0, 100,       220,       125, 1, 1, 0, 1, 0, 1, 0, 1, 0, 1
    56,  1,         0,         0,       149,       -33,  1.09091, 0,     235, 0, 1, 0, 0, 1, 0, 100,       225,       125, 1, 1, 0, 1, 0, 1, 0, 1, 0, 1
    56,  2,       205,     87.71,       149,       -33,  1.09091, 0,     235, 0, 1, 0, 0, 1, 1, 100,       225,       110, 1, 1, 0, 1, 0, 1, 0, 1, 0, 1
    57,  1,       225,      85.6,       149,       -33,  1.09091, 0,     235, 0, 1, 0, 0, 1, 1, 100,       225,       110, 1, 1, 0, 1, 0, 1, 0, 1, 0, 1
    57,  2,       185,      85.6,       149,       -33,  1.09091, 0,     235, 0, 1, 0, 0, 1, 1, 100,       225,       120, 1, 1, 0, 1, 0, 1, 0, 1, 0, 1
    58,  1,       330,    195.71,       363,       -47,    1.035, 0,     588, 0, 1, 0, 0, 1, 1, 100,       535,       255, 1, 1, 0, 1, 0, 1, 0, 1, 0, 1
    59,  1,       330,    122.87,       348,      -100,    1.035, 0,     588, 0, 1, 0, 0, 1, 1, 100,       560,       250, 1, 1, 0, 1, 0, 1, 0, 1, 0, 1
    68,  1,       210,    -10.62,       120,       -14,  1.08636, 0,     235, 0, 1, 0, 0, 1, 1, 100,       225,       129, 1, 1, 0, 1, 0, 1, 0, 1, 0, 1
    69,  1,       225,     -5.94,       120,       -14,  1.08636, 0,     235, 0, 1, 0, 0, 1, 1, 100,       225,       129, 1, 1, 0, 1, 0, 1, 0, 1, 0, 1
    69,  2,       195,     -5.94,        99,       -10,  1.08636, 0,     235, 0, 1, 0, 0, 1, 1, 100,       225,       129, 1, 1, 0, 1, 0, 1, 0, 1, 0, 1
    70,  1,         0,         0,       120,       -14,   1.0325, 0,     235, 0, 1, 0, 0, 1, 0, 100,       225,       129, 1, 1, 0, 1, 0, 1, 0, 1, 0, 1
    70,  2,         0,         0,       120,       -14,   1.0325, 0,     235, 0, 1, 0, 0, 1, 0, 100,       225,       129, 1, 1, 0, 1, 0, 1, 0, 1, 0, 1
    71,  1,       225,     -7.81,        99,       -10,   1.0325, 0,     235, 0, 1, 0, 0, 1, 1, 100,       225,       129, 1, 1, 0, 1, 0, 1, 0, 1, 0, 1
    71,  2,       215,     -7.81,       120,       -14,   1.0325, 0,     235, 0, 1, 0, 0, 1, 1, 100,       225,       129, 1, 1, 0, 1, 0, 1, 0, 1, 0, 1
    92,  1,       220,    134.35,       134,        -7,  1.08182, 0,     271, 0, 1, 0, 0, 1, 1, 100,       220,       140, 1, 1, 0, 1, 0, 1, 0, 1, 0, 1
    92,  2,       210,       131,       131,        -6,  1.08182, 0,     271, 0, 1, 0, 0, 1, 1, 100,       225,       140, 1, 1, 0, 1, 0, 1, 0, 1, 0, 1
    93,  1,         0,         0,       131,        -6,  1.08182, 0,     271, 0, 1, 0, 0, 1, 0, 100,       225,       140, 1, 1, 0, 1, 0, 1, 0, 1, 0, 1
    93,  2,       225,    131.47,       131,        -6,  1.08182, 0,     271, 0, 1, 0, 0, 1, 1, 100,       225,       140, 1, 1, 0, 1, 0, 1, 0, 1, 0, 1
    93,  3,       205,    131.47,       131,        -6,  1.08182, 0,     271, 0, 1, 0, 0, 1, 1, 100,       225,       140, 1, 1, 0, 1, 0, 1, 0, 1, 0, 1
    96,  1,       383,     36.35,       213,       -30,   1.0375, 0,     426, 0, 1, 0, 0, 1, 1, 100,       383,       180, 1, 1, 0, 1, 0, 1, 0, 1, 0, 1
    96,  2,       357,     36.35,       212,       -31,   1.0375, 0,     435, 0, 1, 0, 0, 1, 1, 100,       380,       180, 1, 1, 0, 1, 0, 1, 0, 1, 0, 1
   113,  1,         0,         0,         0,         0,  1.07727, 0,      12, 0, 1, 0, 0, 1, 0, 100,        12,         0, 1, 1, 0, 1, 0, 1, 0, 1, 0, 1
   113,  2,         0,         0,         0,         0,  1.07727, 0,       6, 0, 1, 0, 0, 1, 0, 100,         6,         0, 1, 1, 0, 1, 0, 1, 0, 1, 0, 1
   113,  3,        19,      1.09,         0,         0,  1.07727, 0,      26, 0, 1, 0, 0, 1, 1, 100,        21,         0, 1, 1, 0, 1, 0, 1, 0, 1, 0, 1
   119,  1,       215,     89.14,       120,       -10,  1.08182, 0,     271, 0, 1, 0, 0, 1, 1, 100,       225,       120, 1, 1, 0, 1, 0, 1, 0, 1, 0, 1
   120,  1,       215,     92.04,       120,       -10,  1.08182, 0,     271, 0, 1, 0, 0, 1, 1, 100,       225,       120, 1, 1, 0, 1, 0, 1, 0, 1, 0, 1
   121,  1,       115,     52.14,        73,        -1,  1.08182, 0,     150, 0, 1, 0, 0, 1, 1, 100,       120,        70, 1, 1, 0, 1, 0, 1, 0, 1, 0, 1
   122,  1,       115,      52.7,        73,        -1,  1.08182, 0,     150, 0, 1, 0, 0, 1, 1, 100,       120,        70, 1, 1, 0, 1, 0, 1, 0, 1, 0, 1
   132,  1,         0,         0,        79,         0,  1.07727, 0,     150, 0, 1, 0, 0, 1, 0, 100,       120,        70, 1, 1, 0, 1, 0, 1, 0, 1, 0, 1
   133,  1,       115,     68.61,        79,         0,  1.07727, 0,     150, 0, 1, 0, 0, 1, 1, 100,       120,        70, 1, 1, 0, 1, 0, 1, 0, 1, 0, 1
   134,  1,       105,     28.62,        31,         0,  1.07273, 0,     118, 0, 1, 0, 0, 1, 1, 100,       110,        80, 1, 1, 0, 1, 0, 1, 0, 1, 0, 1
   142,  1,       205,     68.73,       135,       -35,  1.08182, 0,     271, 0, 1, 0, 0, 1, 1, 100,       215,       135, 1, 1, 0, 1, 0, 1, 0, 1, 0, 1
   143,  1,       215,     74.94,       135,       -35,  1.08182, 0,     271, 0, 1, 0, 0, 1, 1, 100,       215,       135, 1, 1, 0, 1, 0, 1, 0, 1, 0, 1
   143,  2,       205,     74.94,       140,       -35,  1.08182, 0,     271, 0, 1, 0, 0, 1, 1, 100,       225,       135, 1, 1, 0, 1, 0, 1, 0, 1, 0, 1
   144,  1,       225,      -2.8,       140,       -36,   1.0375, 0,     271, 0, 1, 0, 0, 1, 1, 100,       225,       135, 1, 1, 0, 1, 0, 1, 0, 1, 0, 1
   144,  2,       205,      -2.8,       137,       -36,   1.0375, 0,     271, 0, 1, 0, 0, 1, 1, 100,       220,       135, 1, 1, 0, 1, 0, 1, 0, 1, 0, 1
   150,  1,         0,         0,        72,       -29,  1.04091, 0,     150, 0, 1, 0, 0, 1, 0, 100,       135,      -135, 1, 1, 0, 1, 0, 1, 0, 1, 0, 1
   150,  2,         0,         0,        72,       -29,  1.04091, 0,     150, 0, 1, 0, 0, 1, 0, 100,       135,      -135, 1, 1, 0, 1, 0, 1, 0, 1, 0, 1
   151,  1,         0,         0,        72,       -29,  1.04091, 0,     150, 0, 1, 0, 0, 1, 0, 100,       135,      -135, 1, 1, 0, 1, 0, 1, 0, 1, 0, 1
   151,  2,         0,         0,        72,       -29,  1.04091, 0,     150, 0, 1, 0, 0, 1, 0, 100,       135,      -135, 1, 1, 0, 1, 0, 1, 0, 1, 0, 1
   152,  1,       110,     95.35,        85,       -15,  1.06818, 0,     150, 0, 1, 0, 0, 1, 1, 100,       120,       100, 1, 1, 0, 1, 0, 1, 0, 1, 0, 1
   152,  2,         0,         0,        85,       -15,  1.06818, 0,     150, 0, 1, 0, 0, 1, 0, 100,       120,       100, 1, 1, 0, 1, 0, 1, 0, 1, 0, 1
   153,  1,       110,     90.77,        85,       -15,  1.06818, 0,     150, 0, 1, 0, 0, 1, 1, 100,       120,       100, 1, 1, 0, 1, 0, 1, 0, 1, 0, 1
   167,  1,         0,         0,        12,         0,     1.05, 0,      51, 0, 1, 0, 0, 1, 0, 100,        50,        40, 1, 1, 0, 1, 0, 1, 0, 1, 0, 1
   169,  1,       180,     81.36,       111,       -21,  1.08182, 0,     238, 0, 1, 0, 0, 1, 1, 100,       205,       135, 1, 1, 0, 1, 0, 1, 0, 1, 0, 1
   170,  1,         0,         0,       102,       -15,  1.08182, 0,     252, 0, 1, 0, 0, 1, 0, 100,       222,        90, 1, 1, 0, 1, 0, 1, 0, 1, 0, 1
   170,  2,         0,         0,       111,       -21,  1.08182, 0,     238, 0, 1, 0, 0, 1, 0, 100,       205,       135, 1, 1, 0, 1, 0, 1, 0, 1, 0, 1
   170,  3,       180,     62.03,       119,       -31,  1.08182, 0,     252, 0, 1, 0, 0, 1, 1, 100,       232,       100, 1, 1, 0, 1, 0, 1, 0, 1, 0, 1
   171,  1,       200,     94.05,       102,       -15,   1.0325, 0,     252, 0, 1, 0, 0, 1, 1, 100,       222,        90, 1, 1, 0, 1, 0, 1, 0, 1, 0, 1
   172,  1,         0,         0,        93,       -10,   1.0325, 0,     252, 0, 1, 0, 0, 1, 0, 100,       232,       100, 1, 1, 0, 1, 0, 1, 0, 1, 0, 1
   172,  2,       200,      91.8,       102,       -15,   1.0325, 0,     252, 0, 1, 0, 0, 1, 1, 100,       222,        90, 1, 1, 0, 1, 0, 1, 0, 1, 0, 1
   177,  1,       261,    115.11,       127,       -35,  1.09091, 0,     287, 0, 1, 0, 0, 1, 1, 100,       261,       104, 1, 1, 0, 1, 0, 1, 0, 1, 0, 1
   177,  2,       189,    115.11,       145,       -38,  1.09091, 0,     264, 0, 1, 0, 0, 1, 1, 100,       235,        94, 1, 1, 0, 1, 0, 1, 0, 1, 0, 1
   178,  1,         0,         0,       103,       -17,  1.09091, 0,     238, 0, 1, 0, 0, 1, 0, 100,       206,       120, 1, 1, 0, 1, 0, 1, 0, 1, 0, 1
   178,  2,       235,       116,       145,       -38,  1.09091, 0,     264, 0, 1, 0, 0, 1, 1, 100,       235,        94, 1, 1, 0, 1, 0, 1, 0, 1, 0, 1
   178,  3,       220,       116,       127,       -35,  1.09091, 0,     287, 0, 1, 0, 0, 1, 1, 100,       261,       104, 1, 1, 0, 1, 0, 1, 0, 1, 0, 1
   178,  4,       220,       116,       127,       -35,  1.09091, 0,     287, 0, 1, 0, 0, 1, 1, 100,       261,       104, 1, 1, 0, 1, 0, 1, 0, 1, 0, 1
   180,  1,       206,     100.5,       103,       -17,     1.03, 0,     238, 0, 1, 0, 0, 1, 1, 100,       206,       120, 1, 1, 0, 1, 0, 1, 0, 1, 0, 1
   180,  2,       194,     100.5,       103,       -17,     1.03, 0,     238, 0, 1, 0, 0, 1, 1, 100,       206,       120, 1, 1, 0, 1, 0, 1, 0, 1, 0, 1
   188,  1,       180,    111.49,       112,       -32,  1.05455, 0,     233, 0, 1, 0, 0, 1, 1, 100,       225,       150, 1, 1, 0, 1, 0, 1, 0, 1, 0, 1
   189,  1,       200,    112.18,       112,       -32,  1.05455, 0,     233, 0, 1, 0, 0, 1, 1, 100,       200,       150, 1, 1, 0, 1, 0, 1, 0, 1, 0, 1
   189,  2,         0,         0,       112,       -32,  1.05455, 0,     233, 0, 1, 0, 0, 1, 0, 100,       200,       150, 1, 1, 0, 1, 0, 1, 0, 1, 0, 1
   189,  3,       160,    112.18,       112,       -32,  1.05455, 0,     233, 0, 1, 0, 0, 1, 1, 100,       200,       150, 1, 1, 0, 1, 0, 1, 0, 1, 0, 1
   190,  1,       400,    255.32,       294,      -259,    1.005, 0,     464, 0, 1, 0, 0, 1, 1, 100,       464,       186, 1, 1, 0, 1, 0, 1, 0, 1, 0, 1
   204,  1,         0,         0,       100,         0,        1, 0,     218, 0, 1, 0, 0, 1, 0, 100,       188,        76, 1, 1, 0, 1, 0, 1, 0, 1, 0, 1
   236,  1,       179,     33.19,       105,       -62,   1.0375, 0,     209, 0, 1, 0, 0, 1, 1, 100,       179,      -200, 1, 1, 0, 1, 0, 1, 0, 1, 0, 1
   236,  2,      89.5,     33.19,       105,       -62,   1.0375, 0,     209, 0, 1, 0, 0, 1, 1, 100,       179,      -200, 1, 1, 0, 1, 0, 1, 0, 1, 0, 1
   236,  3,      89.5,     33.19,       130,       -75,   1.0375, 0,     209, 0, 1, 0, 0, 1, 1, 100,       179,      -200, 1, 1, 0, 1, 0, 1, 0, 1, 0, 1
   237,  1,         0,     41.49,       160,      -100,   1.0375, 0,     209, 0, 1, 0, 0, 1, 1, 100,       179,      -200, 1, 1, 0, 1, 0, 1, 0, 1, 0, 1
   240,  1,       224,     34.78,       150,         0,  1.09091, 0,     156, 0, 1, 0, 0, 1, 1, 100,       250,       113, 1, 1, 0, 1, 0, 1, 0, 1, 0, 1
   250,  1,         0,         0,        20,         0,  1.08182, 0,      79, 0, 1, 0, 0, 1, 0, 100,        55,        23, 1, 1, 0, 1, 0, 1, 0, 1, 0, 1
   250,  2,         0,         0,        20,         0,  1.08182, 0,      69, 0, 1, 0, 0, 1, 0, 100,        50,        25, 1, 1, 0, 1, 0, 1, 0, 1, 0, 1
   251,  1,        15,      9.77,        20,         0,  1.08182, 0,      28, 0, 1, 0, 0, 1, 1, 100,        23,         7, 1, 1, 0, 1, 0, 1, 0, 1, 0, 1
   251,  2,         0,         0,        20,         0,  1.08182, 0,      69, 0, 1, 0, 0, 1, 0, 100,        50,        25, 1, 1, 0, 1, 0, 1, 0, 1, 0, 1
   267,  1,       1.5,         1,         1,         0,  1.07273, 0,       1, 0, 1, 0, 0, 1, 1, 100,         2,         0, 1, 1, 0, 1, 0, 1, 0, 1, 0, 1
   268,  1,       1.6,      1.15,         1,         0,  1.06364, 0,       1, 0, 1, 0, 0, 1, 1, 100,         2,         0, 1, 1, 0, 1, 0, 1, 0, 1, 0, 1
   282,  1,         0,         0,         5,         0,  1.07273, 0,      10, 0, 1, 0, 0, 1, 0, 100,         7,         6, 1, 1, 0, 1, 0, 1, 0, 1, 0, 1
   283,  1,         0,         0,         5,         0,  1.07273, 0,      10, 0, 1, 0, 0, 1, 0, 100,         7,         6, 1, 1, 0, 1, 0, 1, 0, 1, 0, 1
   301,  1,         5,      2.99,      3.75,         0,  1.04545, 0,       5, 0, 1, 0, 0, 1, 1, 100,         5,         1, 1, 1, 0, 1, 0, 1, 0, 1, 0, 1
   301,  2,      1.68,      2.99,      3.75,         0,  1.04545, 0,       5, 0, 1, 0, 0, 1, 1, 100,         5,         1, 1, 1, 0, 1, 0, 1, 0, 1, 0, 1
   301,  3,      1.68,      2.99,      3.75,         0,  1.04545, 0,       5, 0, 1, 0, 0, 1, 1, 100,         5,         1, 1, 1, 0, 1, 0, 1, 0, 1, 0, 1
   302,  1,      2.79,      0.14,      3.75,         0,  1.04545, 0,       5, 0, 1, 0, 0, 1, 1, 100,         5,         1, 1, 1, 0, 1, 0, 1, 0, 1, 0, 1
   316,  1,       350,    190.13,       190,       -19,        1, 0,     426, 0, 1, 0, 0, 1, 1, 100,       370,       240, 1, 1, 0, 1, 0, 1, 0, 1, 0, 1
   322,  1,         0,         0,         2,         0,  1.03636, 0,       4, 0, 1, 0, 0, 1, 0, 100,         6,         1, 1, 1, 0, 1, 0, 1, 0, 1, 0, 1
   322,  2,         0,         0,         2,         0,  1.03636, 0,       4, 0, 1, 0, 0, 1, 0, 100,         6,         1, 1, 1, 0, 1, 0, 1, 0, 1, 0, 1
   369,  1,      9.16,      0.44,         4,         0,  1.07273, 0,      30, 0, 1, 0, 0, 1, 1, 100,        30,         0, 1, 1, 0, 1, 0, 1, 0, 1, 0, 1
   398,  1,         0,         0,         5,         0,  1.08182, 0,       8, 0, 1, 0, 0, 1, 0, 100,         7,         5, 1, 1, 0, 1, 0, 1, 0, 1, 0, 1
   402,  1,       0.9,      1.11,         1,         0,  1.08182, 0,       1, 0, 1, 0, 0, 1, 1, 100,         1,         0, 1, 1, 0, 1, 0, 1, 0, 1, 0, 1
   402,  2,      0.55,      1.11,         1,         0,  1.08182, 0,       1, 0, 1, 0, 0, 1, 1, 100,         1,         0, 1, 1, 0, 1, 0, 1, 0, 1, 0, 1
   402,  3,      0.55,      1.11,         1,         0,  1.08182, 0,       1, 0, 1, 0, 0, 1, 1, 100,         1,         0, 1, 1, 0, 1, 0, 1, 0, 1, 0, 1
   409,  1,         0,         0,         7,         0,  1.07545, 0,      31, 0, 1, 0, 0, 1, 0, 100,        27,        11, 1, 1, 0, 1, 0, 1, 0, 1, 0, 1
   409,  2,        20,      7.51,         7,         0,  1.07545, 0,      39, 0, 1, 0, 0, 1, 1, 100,        30,        11, 1, 1, 0, 1, 0, 1, 0, 1, 0, 1
   409,  3,         0,         0,         6,         0,  1.07545, 0,      41, 0, 1, 0, 0, 1, 0, 100,        30,         9, 1, 1, 0, 1, 0, 1, 0, 1, 0, 1
   411,  1,         0,         0,        15,         0,  1.07273, 0,      69, 0, 1, 0, 0, 1, 0, 100,        55,        20, 1, 1, 0, 1, 0, 1, 0, 1, 0, 1
   411,  2,        20,     15.24,        15,         0,  1.07273, 0,      69, 0, 1, 0, 0, 1, 1, 100,        55,        20, 1, 1, 0, 1, 0, 1, 0, 1, 0, 1
   412,  1,         0,         0,        15,         0,  1.07273, 0,      49, 0, 1, 0, 0, 1, 0, 100,        40,        10, 1, 1, 0, 1, 0, 1, 0, 1, 0, 1
   412,  2,         0,         0,        15,         0,  1.07273, 0,      69, 0, 1, 0, 0, 1, 0, 100,        55,        20, 1, 1, 0, 1, 0, 1, 0, 1, 0, 1
   414,  1,         0,         0,        20,         0,  1.07273, 0,      69, 0, 1, 0, 0, 1, 0, 100,        50,        25, 1, 1, 0, 1, 0, 1, 0, 1, 0, 1
   414,  2,         0,         0,        20,         0,  1.07273, 0,     147, 0, 1, 0, 0, 1, 0, 100,       100,        55, 1, 1, 0, 1, 0, 1, 0, 1, 0, 1
   415,  1,        30,      1.18,        40,         0,  1.07273, 0,      69, 0, 1, 0, 0, 1, 1, 100,        60,        25, 1, 1, 0, 1, 0, 1, 0, 1, 0, 1
   428,  1,         2,      3.06,         3,         0,  1.07273, 0,       4, 0, 1, 0, 0, 1, 1, 100,         3,         2, 1, 1, 0, 1, 0, 1, 0, 1, 0, 1
   466,  1,         0,         0,         1,         0,  1.06364, 0,       2, 0, 1, 0, 0, 1, 0, 100,         2,         1, 1, 1, 0, 1, 0, 1, 0, 1, 0, 1
   492,  1,        38,     24.55,        57,       -22,  1.07273, 0,      69, 0, 1, 0, 0, 1, 1, 100,        52,        15, 1, 1, 0, 1, 0, 1, 0, 1, 0, 1
   493,  1,        47,     20.36,        57,       -22,  1.07273, 0,      69, 0, 1, 0, 0, 1, 1, 100,        55,        15, 1, 1, 0, 1, 0, 1, 0, 1, 0, 1
   494,  1,        47,     23.02,        57,       -22,  1.08182, 0,      69, 0, 1, 0, 0, 1, 1, 100,        55,        15, 1, 1, 0, 1, 0, 1, 0, 1, 0, 1
   494,  2,        15,     23.02,        57,       -22,  1.08182, 0,      69, 0, 1, 0, 0, 1, 1, 100,        55,        15, 1, 1, 0, 1, 0, 1, 0, 1, 0, 1
   495,  1,        55,     16.82,        57,       -22,  1.07273, 0,      69, 0, 1, 0, 0, 1, 1, 100,        55,        15, 1, 1, 0, 1, 0, 1, 0, 1, 0, 1
   495,  2,        15,     16.82,        71,       -28,  1.07273, 0,      88, 0, 1, 0, 0, 1, 1, 100,        77,         3, 1, 1, 0, 1, 0, 1, 0, 1, 0, 1
   517,  1,       180,     28.36,       162,       -61,  1.09091, 0,     235, 0, 1, 0, 0, 1, 1, 100,       226,       120, 1, 1, 0, 1, 0, 1, 0, 1, 0, 1
   517,  2,         0,         0,        12,         0,  1.09091, 0,      49, 0, 1, 0, 0, 1, 0, 100,        25,        12, 1, 1, 0, 1, 0, 1, 0, 1, 0, 1
   518,  1,        15,     13.57,        12,         0,      1.1, 0,      49, 0, 1, 0, 0, 1, 1, 100,        17,        10, 1, 1, 0, 1, 0, 1, 0, 1, 0, 1
   522,  1,         0,         0,         2,         0,  1.06364, 0,       6, 0, 1, 0, 0, 1, 0, 100,         4,         4, 1, 1, 0, 1, 0, 1, 0, 1, 0, 1
   542,  1,       0.3,      1.36,       0.2,         0,  1.08182, 0,       0, 0, 1, 0, 0, 1, 1, 100,         0,         0, 1, 1, 0, 1, 0, 1, 0, 1, 0, 1
   571,  1,         0,         0,         4,         0,  1.04545, 0,       8, 0, 1, 0, 0, 1, 0, 100,         7,         3, 1, 1, 0, 1, 0, 1, 0, 1, 0, 1
   580,  1,         0,         0,         3,         0,  1.08182, 0,       5, 0, 1, 0, 0, 1, 0, 100,         3,         3, 1, 1, 0, 1, 0, 1, 0, 1, 0, 1
   587,  1,         4,      6.34,       4.7,       3.8,  1.06364, 0,       7, 0, 1, 0, 0, 1, 1, 100,         7,         1, 1, 1, 0, 1, 0, 1, 0, 1, 0, 1
   587,  2,         1,      6.34,       4.7,       3.8,  1.06364, 0,       7, 0, 1, 0, 0, 1, 1, 100,         7,         1, 1, 1, 0, 1, 0, 1, 0, 1, 0, 1
   587,  3,         0,         0,       4.7,       3.8,  1.06364, 0,       7, 0, 1, 0, 0, 1, 0, 100,         7,         1, 1, 1, 0, 1, 0, 1, 0, 1, 0, 1
   599,  1,       2.5,      2.02,         2,         0,  1.07273, 0,       4, 0, 1, 0, 0, 1, 1, 100,         3,         2, 1, 1, 0, 1, 0, 1, 0, 1, 0, 1
   633,  1,         0,         0,         2,         0,  1.02727, 0,       5, 0, 1, 0, 0, 1, 0, 100,         4,         3, 1, 1, 0, 1, 0, 1, 0, 1, 0, 1
   663,  1,         1,      0.32,       0.7,         0,  1.05455, 0,       2, 0, 1, 0, 0, 1, 1, 100,         2,         1, 1, 1, 0, 1, 0, 1, 0, 1, 0, 1
   663,  2,         0,         0,       0.7,         0,  1.05455, 0,       2, 0, 1, 0, 0, 1, 0, 100,         2,         1, 1, 1, 0, 1, 0, 1, 0, 1, 0, 1
   669,  1,         0,         0,         3,         0,  1.06364, 0,       6, 0, 1, 0, 0, 1, 0, 100,         4,         3, 1, 1, 0, 1, 0, 1, 0, 1, 0, 1
   740,  1,        52,     17.63,        35,         2,  1.05455, 0,      63, 0, 1, 0, 0, 1, 1, 100,        52,        37, 1, 1, 0, 1, 0, 1, 0, 1, 0, 1
   740,  2,         0,         0,        23,         2,  1.05455, 0,      38, 0, 1, 0, 0, 1, 0, 100,        30,        10, 1, 1, 0, 1, 0, 1, 0, 1, 0, 1
   740,  3,         0,         0,        85,         6,  1.05455, 0,     150, 0, 1, 0, 0, 1, 0, 100,       105,        50, 1, 1, 0, 1, 0, 1, 0, 1, 0, 1
   740,  4,        58,     17.63,        85,         6,  1.05455, 0,     150, 0, 1, 0, 0, 1, 1, 100,       105,        50, 1, 1, 0, 1, 0, 1, 0, 1, 0, 1
   741,  1,         0,         0,        23,         2,  1.05455, 0,      38, 0, 1, 0, 0, 1, 0, 100,        30,        10, 1, 1, 0, 1, 0, 1, 0, 1, 0, 1
   741,  2,         0,         0,        23,         2,  1.05455, 0,      38, 0, 1, 0, 0, 1, 0, 100,        30,        10, 1, 1, 0, 1, 0, 1, 0, 1, 0, 1
   741,  3,        30,        25,        25,         2,  1.05455, 0,      38, 0, 1, 0, 0, 1, 1, 100,        30,        10, 1, 1, 0, 1, 0, 1, 0, 1, 0, 1
   741,  4,        70,     27.57,        85,         6,  1.05455, 0,     150, 0, 1, 0, 0, 1, 1, 100,       125,        68, 1, 1, 0, 1, 0, 1, 0, 1, 0, 1
   741,  5,         0,         0,        85,         6,  1.05455, 0,     150, 0, 1, 0, 0, 1, 0, 100,       105,        50, 1, 1, 0, 1, 0, 1, 0, 1, 0, 1
   762,  1,       1.4,      2.56,       0.7,         0,  1.04545, 0,       2, 0, 1, 0, 0, 1, 1, 100,         2,         1, 1, 1, 0, 1, 0, 1, 0, 1, 0, 1
   764,  1,         1,      1.05,         1,         0,  1.06364, 0,       4, 0, 1, 0, 0, 1, 1, 100,         1,         0, 1, 1, 0, 1, 0, 1, 0, 1, 0, 1
   772,  1,         0,         0,        18,         2,  1.05455, 0,      38, 0, 1, 0, 0, 1, 0, 100,        35,         9, 1, 1, 0, 1, 0, 1, 0, 1, 0, 1
   772,  2,        20,     18.87,        30,         2,  1.05455, 0,      38, 0, 1, 0, 0, 1, 1, 100,        20,         9, 1, 1, 0, 1, 0, 1, 0, 1, 0, 1
   773,  1,         0,         0,        18,         2,  1.05455, 0,      38, 0, 1, 0, 0, 1, 0, 100,        35,         9, 1, 1, 0, 1, 0, 1, 0, 1, 0, 1
   773,  2,         0,         0,        18,         2,  1.05455, 0,      38, 0, 1, 0, 0, 1, 0, 100,        35,         9, 1, 1, 0, 1, 0, 1, 0, 1, 0, 1
   773,  3,         0,         0,        18,         2,  1.05455, 0,      38, 0, 1, 0, 0, 1, 0, 100,        35,         9, 1, 1, 0, 1, 0, 1, 0, 1, 0, 1
   773,  4,        80,     90.04,        65,         6,  1.05455, 0,     121, 0, 1, 0, 0, 1, 1, 100,        97,        30, 1, 1, 0, 1, 0, 1, 0, 1, 0, 1
   774,  1,         0,         0,        18,         2,  1.05455, 0,      38, 0, 1, 0, 0, 1, 0, 100,        35,         9, 1, 1, 0, 1, 0, 1, 0, 1, 0, 1
   774,  2,         0,         0,        18,         2,  1.05455, 0,      38, 0, 1, 0, 0, 1, 0, 100,        30,         9, 1, 1, 0, 1, 0, 1, 0, 1, 0, 1
   774,  3,         0,         0,        14,         2,  1.05455, 0,      32, 0, 1, 0, 0, 1, 0, 100,        28,         9, 1, 1, 0, 1, 0, 1, 0, 1, 0, 1
   809,  1,         1,      1.23,         4,         0,  1.07273, 0,       5, 0, 1, 0, 0, 1, 1, 100,         8,         1, 1, 1, 0, 1, 0, 1, 0, 1, 0, 1
   809,  2,         0,         0,         2,         0,  1.07273, 0,       2, 0, 1, 0, 0, 1, 0, 100,         2,         1, 1, 1, 0, 1, 0, 1, 0, 1, 0, 1
   829,  1,         0,         0,       4.5,       0.2,  1.04545, 0,       6, 0, 1, 0, 0, 1, 0, 100,         4,         4, 1, 1, 0, 1, 0, 1, 0, 1, 0, 1
   844,  1,       2.5,      1.03,         0,         0,  1.07273, 0,       6, 0, 1, 0, 0, 1, 1, 100,         3,         0, 1, 1, 0, 1, 0, 1, 0, 1, 0, 1
   853,  1,         0,         0,         0,         0,  1.06364, 0,       4, 0, 1, 0, 0, 1, 0, 100,         5,         0, 1, 1, 0, 1, 0, 1, 0, 1, 0, 1
   876,  1,        93,      4.21,        30,         0,  1.08182, 0,      65, 0, 1, 0, 0, 1, 1, 100,        93,         0, 1, 1, 0, 1, 0, 1, 0, 1, 0, 1
   876,  2,        12,      4.21,        30,         0,  1.08182, 0,      65, 0, 1, 0, 0, 1, 1, 100,        36,         0, 1, 1, 0, 1, 0, 1, 0, 1, 0, 1
   879,  1,         0,         0,         0,         0,  1.06364, 0,      12, 0, 1, 0, 0, 1, 0, 100,         3,         0, 1, 1, 0, 1, 0, 1, 0, 1, 0, 1
   886,  1,         0,         0,         0,         0,  1.08182, 0,       5, 0, 1, 0, 0, 1, 0, 100,         6,         0, 1, 1, 0, 1, 0, 1, 0, 1, 0, 1
...